Version 4
SHEET 1 880 680
WIRE 192 32 64 32
WIRE 400 32 272 32
WIRE 640 32 480 32
WIRE 64 112 64 32
WIRE 640 112 640 32
WIRE 64 272 64 192
WIRE 192 272 64 272
WIRE 400 272 272 272
WIRE 640 272 640 192
WIRE 640 272 480 272
WIRE 64 352 64 272
FLAG 64 352 0
SYMBOL voltage 64 96 R0
SYMATTR InstName V1
SYMATTR Value 1k
SYMBOL res 288 16 R90
WINDOW 0 0 56 VBottom 2
WINDOW 3 32 56 VTop 2
SYMATTR InstName R1
SYMATTR Value 1000
SYMBOL res 496 16 R90
WINDOW 0 0 56 VBottom 2
WINDOW 3 32 56 VTop 2
SYMATTR InstName R2
SYMATTR Value 1000
SYMBOL res 656 208 R180
WINDOW 0 36 76 Left 2
WINDOW 3 36 40 Left 2
SYMATTR InstName R3
SYMATTR Value 1000
SYMBOL res 384 288 R270
WINDOW 0 32 56 VTop 2
WINDOW 3 0 56 VBottom 2
SYMATTR InstName R4
SYMATTR Value 1000
SYMBOL res 176 288 R270
WINDOW 0 32 56 VTop 2
WINDOW 3 0 56 VBottom 2
SYMATTR InstName R5
SYMATTR Value 1000
TEXT 584 304 Left 2 !.op
