Version 4
SHEET 1 880 680
WIRE 704 -96 528 -96
WIRE 528 -64 528 -96
WIRE 48 64 -48 64
WIRE 192 64 128 64
WIRE 528 64 384 64
WIRE 528 64 528 16
WIRE 496 128 384 128
WIRE 192 160 112 160
WIRE -48 192 -48 64
WIRE 704 192 704 -96
WIRE 496 304 496 128
WIRE 704 304 704 272
WIRE 704 304 496 304
WIRE -48 320 -48 272
WIRE 112 320 112 160
WIRE 112 320 -48 320
WIRE -48 352 -48 320
WIRE 496 352 496 304
FLAG -48 352 0
FLAG 496 352 0
FLAG -48 64 Uin
FLAG 528 64 Uout
SYMBOL voltage -48 176 R0
WINDOW 3 20 202 Left 2
WINDOW 123 0 0 Left 0
WINDOW 39 0 0 Left 0
SYMATTR InstName V1
SYMATTR Value PULSE(0 24 50m 100n 100n 50m 100m 2)
SYMBOL res 144 48 R90
WINDOW 0 0 56 VBottom 2
WINDOW 3 32 56 VTop 2
SYMATTR InstName R1
SYMATTR Value 3900
SYMBOL Optos\\CNY17-3 288 128 R0
SYMATTR InstName U1
SYMBOL res 512 -80 R0
SYMATTR InstName R2
SYMATTR Value 4700
SYMBOL voltage 704 176 R0
SYMATTR InstName V2
SYMATTR Value 5
TEXT -40 416 Left 2 !.tran 0 200m 0 100u
