Version 4
SHEET 1 880 680
WIRE 80 -48 64 -48
WIRE 176 -48 80 -48
WIRE 320 -48 256 -48
WIRE 688 -48 448 -48
WIRE 704 -48 688 -48
WIRE 64 32 64 -48
WIRE 320 32 320 -48
WIRE 448 32 448 -48
WIRE 704 32 704 -48
WIRE 64 192 64 112
WIRE 320 192 320 112
WIRE 320 192 64 192
WIRE 448 192 448 112
WIRE 704 192 704 112
WIRE 704 192 448 192
WIRE 320 256 320 192
WIRE 448 256 448 192
FLAG 320 256 0
FLAG 448 256 0
FLAG 80 -48 Uin
FLAG 688 -48 Uout
SYMBOL voltage 64 16 R0
WINDOW 3 -13 293 Left 2
WINDOW 123 0 0 Left 0
WINDOW 39 0 0 Left 0
SYMATTR Value SINE(0 325 50 0 0 0 2)
SYMATTR InstName V1
SYMBOL ind2 304 16 R0
SYMATTR InstName L1
SYMATTR Value 3000
SYMATTR Type ind
SYMBOL res 272 -64 R90
WINDOW 0 0 56 VBottom 2
WINDOW 3 32 56 VTop 2
SYMATTR InstName R1
SYMATTR Value 1µ
SYMBOL ind2 432 16 R0
SYMATTR InstName L2
SYMATTR Value 177m
SYMATTR Type ind
SYMBOL res 688 16 R0
SYMATTR InstName R2
SYMATTR Value 1000
TEXT 48 352 Left 2 !.tran 0 40m 0 100u
TEXT 312 -88 Left 2 !K1 L1 L2 1
