Version 4
SHEET 1 896 680
WIRE 800 -240 528 -240
WIRE 528 -208 528 -240
WIRE 528 -144 528 -208
WIRE 800 -32 800 -240
WIRE 528 0 528 -64
WIRE 528 32 528 0
WIRE 80 112 64 112
WIRE 240 112 80 112
WIRE 384 112 320 112
WIRE 480 112 384 112
WIRE 64 176 64 112
WIRE 384 192 384 112
WIRE 64 304 64 256
WIRE 384 304 384 272
WIRE 384 304 64 304
WIRE 528 304 528 128
WIRE 528 304 384 304
WIRE 800 304 800 48
WIRE 800 304 528 304
WIRE 384 368 384 304
FLAG 384 368 0
FLAG 528 -208 ua
FLAG 80 112 Uin
FLAG 528 0 ub
SYMBOL voltage 64 160 R0
WINDOW 3 376 191 Left 2
WINDOW 123 0 0 Left 0
WINDOW 39 0 0 Left 0
SYMATTR Value PULSE(0m 5 9m 10n 10n 1m 10m 10)
SYMATTR InstName V1
SYMBOL voltage 800 -48 R0
SYMATTR InstName V2
SYMATTR Value 12
SYMBOL res 336 96 R90
WINDOW 0 0 56 VBottom 2
WINDOW 3 32 56 VTop 2
SYMATTR InstName R1
SYMATTR Value 47
SYMBOL res 368 176 R0
WINDOW 0 -42 41 Left 2
WINDOW 3 -51 78 Left 2
SYMATTR InstName R2
SYMATTR Value 10k
SYMBOL res 512 -160 R0
SYMATTR InstName R3
SYMATTR Value 100
SYMBOL nmos 480 32 R0
SYMATTR InstName M1
SYMATTR Value IRF2804
TEXT 440 384 Left 2 !.tran 0 100m 0 100u
