Version 4
SHEET 1 880 680
WIRE 336 -80 80 -80
WIRE 336 -16 336 -80
WIRE 80 128 80 -80
WIRE 336 144 336 64
WIRE 336 288 336 208
WIRE 80 368 80 208
WIRE 336 368 80 368
WIRE 80 416 80 368
FLAG 80 416 0
SYMBOL voltage 80 112 R0
WINDOW 123 24 124 Left 2
WINDOW 39 0 0 Left 0
SYMATTR InstName V1
SYMATTR Value ""
SYMATTR Value2 AC 10
SYMBOL ind 320 272 R0
SYMATTR InstName L1
SYMATTR Value 1m
SYMBOL res 320 -32 R0
SYMATTR InstName R1
SYMATTR Value 1
SYMBOL cap 320 144 R0
SYMATTR InstName C1
SYMATTR Value 1µ
TEXT 248 424 Left 2 !.ac oct 10 1k 10k
