Version 4
SHEET 1 1868 680
WIRE 272 -192 272 -224
WIRE 272 -80 272 -112
WIRE 272 -80 192 -80
WIRE 192 -32 192 -80
WIRE 272 -16 272 -80
WIRE 1200 64 1184 64
WIRE 1360 64 1280 64
WIRE 1680 64 1600 64
WIRE 1824 64 1760 64
WIRE 976 80 720 80
WIRE 272 96 272 64
WIRE 784 192 784 176
WIRE 720 208 720 80
WIRE 752 208 720 208
WIRE 976 224 976 80
WIRE 976 224 816 224
WIRE 1056 224 976 224
WIRE 1184 224 1184 64
WIRE 1184 224 1136 224
WIRE 1216 224 1184 224
WIRE 16 240 -176 240
WIRE 192 240 96 240
WIRE 608 240 352 240
WIRE 752 240 608 240
WIRE 1360 240 1360 64
WIRE 1360 240 1280 240
WIRE 1456 240 1360 240
WIRE 1600 240 1600 64
WIRE 1600 240 1536 240
WIRE 1680 240 1600 240
WIRE 1216 256 1200 256
WIRE 1824 256 1824 64
WIRE 1824 256 1744 256
WIRE 1680 272 1616 272
WIRE 784 288 784 256
WIRE -176 320 -176 240
WIRE 192 320 192 240
WIRE 352 320 352 240
WIRE 608 320 608 240
WIRE 1056 336 976 336
WIRE 1184 336 1184 224
WIRE 1184 336 1136 336
WIRE 976 352 976 336
WIRE -176 448 -176 400
WIRE 192 448 192 400
WIRE 192 448 -176 448
WIRE 352 448 352 400
WIRE 608 448 608 400
WIRE 608 448 352 448
WIRE 976 464 976 432
WIRE 1200 464 1200 256
WIRE 1616 464 1616 272
WIRE 192 496 192 448
WIRE 352 496 352 448
FLAG 192 -32 0
FLAG 272 96 VEE
FLAG 272 -224 VCC
FLAG 192 496 0
FLAG 352 496 0
FLAG 784 288 VEE
FLAG 784 176 VCC
FLAG 976 336 UDC
FLAG 1200 464 0
FLAG 976 464 0
FLAG 976 224 ua
FLAG 1360 240 ub
FLAG 1616 464 0
FLAG 1712 224 VCC
FLAG 1712 288 VEE
FLAG 1824 256 uout
FLAG 1248 208 VCC
FLAG 1248 272 VEE
FLAG -176 240 up
FLAG 608 240 us
SYMBOL voltage -176 304 R0
WINDOW 3 1 243 Left 2
WINDOW 123 0 0 Left 0
WINDOW 39 0 0 Left 0
SYMATTR InstName V1
SYMATTR Value SINE(0 325 50 0 0 0 2)
SYMBOL voltage 272 -208 R0
SYMATTR InstName V2
SYMATTR Value 20
SYMBOL voltage 272 -32 R0
SYMATTR InstName V3
SYMATTR Value 20
SYMBOL res 112 224 R90
WINDOW 0 0 56 VBottom 2
WINDOW 3 32 56 VTop 2
SYMATTR InstName Rx
SYMATTR Value 1µ
SYMBOL ind 176 304 R0
SYMATTR InstName L1
SYMATTR Value 3000
SYMBOL ind 336 304 R0
SYMATTR InstName L2
SYMATTR Value 177m
SYMBOL res 592 304 R0
SYMATTR InstName R1
SYMATTR Value 1000
SYMBOL Opamps\\opamp2 784 160 R0
SYMATTR InstName U1
SYMATTR Value LM741/NS
SYMBOL res 1152 208 R90
WINDOW 0 0 56 VBottom 2
WINDOW 3 32 56 VTop 2
SYMATTR InstName R2
SYMATTR Value 10k
SYMBOL Opamps\\opamp2 1248 176 R0
SYMATTR InstName U2
SYMATTR Value LM741/NS
SYMBOL res 1152 320 R90
WINDOW 0 0 56 VBottom 2
WINDOW 3 32 56 VTop 2
SYMATTR InstName R3
SYMATTR Value 10k
SYMBOL voltage 976 336 R0
SYMATTR InstName V4
SYMATTR Value 2.5
SYMBOL res 1296 48 R90
WINDOW 0 0 56 VBottom 2
WINDOW 3 32 56 VTop 2
SYMATTR InstName R4
SYMATTR Value 10k
SYMBOL res 1552 224 R90
WINDOW 0 0 56 VBottom 2
WINDOW 3 32 56 VTop 2
SYMATTR InstName R5
SYMATTR Value 10k
SYMBOL Opamps\\opamp2 1712 192 R0
SYMATTR InstName U3
SYMATTR Value LM741/NS
SYMBOL res 1776 48 R90
WINDOW 0 0 56 VBottom 2
WINDOW 3 32 56 VTop 2
SYMATTR InstName R6
SYMATTR Value 10k
TEXT -176 592 Left 2 !.tran 0 40m 0 100u
TEXT -176 624 Left 2 !.include nat_semi.lib
